2
# Frame 1
C 8.515 5.720 20.201
C 18.279 9.650 15.465
2
# Frame 2
C 8.840 5.910 20.080
C 17.955 9.459 15.585
2
# Frame 3
C 9.164 6.100 19.960
C 17.630 9.269 15.705
2
# Frame 4
C 9.489 6.290 19.840
C 17.305 9.079 15.825
2
# Frame 5
C 9.814 6.480 19.720
C 16.981 8.889 15.945
2
# Frame 6
C 10.138 6.671 19.600
C 16.656 8.699 16.066
2
# Frame 7
C 10.463 6.861 19.479
C 16.331 8.509 16.186
2
# Frame 8
C 10.789 7.051 19.359
C 16.006 8.318 16.307
2
# Frame 9
C 11.115 7.242 19.238
C 15.680 8.128 16.428
2
# Frame 10
C 11.443 7.433 19.115
C 15.352 7.937 16.550
2
# Frame 11
C 11.776 7.624 18.990
C 15.019 7.745 16.676
2
# Frame 12
C 12.124 7.816 18.853
C 14.670 7.554 16.812
2
# Frame 13
C 12.498 8.005 18.696
C 14.297 7.364 16.969
2
# Frame 14
C 12.660 8.299 18.760
C 14.134 7.071 16.906
2
# Frame 15
C 12.673 8.681 18.990
C 14.121 6.689 16.676
2
# Frame 16
C 12.701 9.043 19.195
C 14.093 6.327 16.470
2
# Frame 17
C 12.735 9.394 19.390
C 14.060 5.976 16.275
2
# Frame 18
C 12.770 9.741 19.581
C 14.024 5.628 16.084
2
# Frame 19
C 12.806 10.087 19.772
C 13.989 5.282 15.894
2
# Frame 20
C 12.842 10.433 19.961
C 13.953 4.937 15.704
2
# Frame 21
C 12.878 10.778 20.151
C 13.917 4.592 15.515
