5
Step 0
P0 -5.000000 2.000000 0.0 0
P1 4.000000 -3.000000 0.0 1
P2 1.500000 6.000000 0.0 2
P3 -2.500000 -4.500000 0.0 3
P4 7.000000 3.500000 0.0 4
5
Step 1
P0 -4.791128 2.036963 0.0 0
P1 3.958151 -2.823608 0.0 1
P2 1.447059 5.679399 0.0 2
P3 -2.285658 -4.236846 0.0 3
P4 6.816060 3.440246 0.0 4
5
Step 2
P0 -4.511325 2.051341 0.0 0
P1 3.697118 -2.574102 0.0 1
P2 1.301944 5.384593 0.0 2
P3 -2.092202 -3.880785 0.0 3
P4 6.476730 3.246345 0.0 4
5
Step 3
P0 -4.195438 2.112931 0.0 0
P1 3.553053 -2.497301 0.0 1
P2 1.389577 5.269173 0.0 2
P3 -1.994445 -3.639558 0.0 3
P4 6.115303 3.004959 0.0 4
5
Step 4
P0 -3.980925 2.172511 0.0 0
P1 3.427366 -2.235810 0.0 1
P2 1.260627 4.994255 0.0 2
P3 -1.853817 -3.349635 0.0 3
P4 5.963871 2.870469 0.0 4
5
Step 5
P0 -3.626436 2.108306 0.0 0
P1 3.379681 -1.980356 0.0 1
P2 1.241300 4.876043 0.0 2
P3 -1.768785 -3.177578 0.0 3
P4 5.615117 2.777250 0.0 4
5
Step 6
P0 -3.359578 2.148831 0.0 0
P1 3.160072 -1.882366 0.0 1
P2 1.122169 4.787745 0.0 2
P3 -1.517165 -3.049852 0.0 3
P4 5.496275 2.670436 0.0 4
5
Step 7
P0 -3.201726 2.130611 0.0 0
P1 3.020153 -1.620133 0.0 1
P2 1.156847 4.717972 0.0 2
P3 -1.273898 -2.930248 0.0 3
P4 5.255822 2.626861 0.0 4
5
Step 8
P0 -2.953675 2.044091 0.0 0
P1 2.961026 -1.434917 0.0 1
P2 1.219418 4.486570 0.0 2
P3 -1.261366 -2.650880 0.0 3
P4 4.923909 2.479460 0.0 4
5
Step 9
P0 -2.667821 1.878745 0.0 0
P1 2.785395 -1.319951 0.0 1
P2 1.141136 4.276260 0.0 2
P3 -1.238114 -2.560183 0.0 3
P4 4.626054 2.317652 0.0 4
5
Step 10
P0 -2.576834 1.713102 0.0 0
P1 2.749895 -1.163980 0.0 1
P2 1.116430 4.014591 0.0 2
P3 -1.210798 -2.358824 0.0 3
P4 4.384192 2.300885 0.0 4
5
Step 11
P0 -2.436860 1.617456 0.0 0
P1 2.752405 -1.144044 0.0 1
P2 1.005449 3.977450 0.0 2
P3 -0.991517 -2.289499 0.0 3
P4 4.117488 2.191018 0.0 4
5
Step 12
P0 -2.270411 1.667002 0.0 0
P1 2.676300 -1.114209 0.0 1
P2 1.030007 3.793655 0.0 2
P3 -0.926276 -2.209220 0.0 3
P4 4.070431 2.030772 0.0 4
5
Step 13
P0 -2.214457 1.650766 0.0 0
P1 2.612264 -1.110300 0.0 1
P2 1.053063 3.602497 0.0 2
P3 -0.872838 -2.096902 0.0 3
P4 3.818307 2.083224 0.0 4
5
Step 14
P0 -2.096298 1.607129 0.0 0
P1 2.416233 -1.016174 0.0 1
P2 1.006852 3.578933 0.0 2
P3 -0.844236 -1.891815 0.0 3
P4 3.671041 2.127046 0.0 4
5
Step 15
P0 -1.905863 1.464007 0.0 0
P1 2.277212 -0.999618 0.0 1
P2 1.034141 3.334519 0.0 2
P3 -0.800417 -1.755370 0.0 3
P4 3.600252 1.948550 0.0 4
5
Step 16
P0 -1.741268 1.453377 0.0 0
P1 2.092067 -0.990299 0.0 1
P2 1.099642 3.149954 0.0 2
P3 -0.785758 -1.540086 0.0 3
P4 3.553555 1.873464 0.0 4
5
Step 17
P0 -1.586963 1.370763 0.0 0
P1 1.994711 -0.833266 0.0 1
P2 1.116334 3.086626 0.0 2
P3 -0.712209 -1.331583 0.0 3
P4 3.299454 1.874486 0.0 4
5
Step 18
P0 -1.498039 1.257161 0.0 0
P1 1.925974 -0.777464 0.0 1
P2 1.140884 3.098851 0.0 2
P3 -0.709150 -1.166004 0.0 3
P4 3.227851 1.939879 0.0 4
5
Step 19
P0 -1.339758 1.245789 0.0 0
P1 1.929810 -0.791418 0.0 1
P2 1.153426 2.940205 0.0 2
P3 -0.530508 -0.940736 0.0 3
P4 3.222744 1.820487 0.0 4
5
Step 20
P0 -1.280262 1.300132 0.0 0
P1 1.838503 -0.794955 0.0 1
P2 1.171411 2.763938 0.0 2
P3 -0.449084 -0.757035 0.0 3
P4 3.125288 1.750279 0.0 4
5
Step 21
P0 -1.121547 1.382616 0.0 0
P1 1.786073 -0.777513 0.0 1
P2 1.271980 2.716131 0.0 2
P3 -0.259758 -0.707211 0.0 3
P4 2.933658 1.759766 0.0 4
5
Step 22
P0 -1.105333 1.302314 0.0 0
P1 1.689657 -0.701603 0.0 1
P2 1.296014 2.708494 0.0 2
P3 -0.223292 -0.522848 0.0 3
P4 2.732958 1.772295 0.0 4
5
Step 23
P0 -1.034569 1.318364 0.0 0
P1 1.641425 -0.698426 0.0 1
P2 1.382320 2.722614 0.0 2
P3 -0.136953 -0.448927 0.0 3
P4 2.680647 1.807876 0.0 4
5
Step 24
P0 -0.997685 1.245300 0.0 0
P1 1.656599 -0.682829 0.0 1
P2 1.415509 2.693962 0.0 2
P3 -0.134423 -0.412289 0.0 3
P4 2.708580 1.783989 0.0 4
5
Step 25
P0 -0.798155 1.256512 0.0 0
P1 1.680035 -0.563239 0.0 1
P2 1.341091 2.629722 0.0 2
P3 -0.115892 -0.449490 0.0 3
P4 2.602751 1.785441 0.0 4
5
Step 26
P0 -0.781771 1.142838 0.0 0
P1 1.756680 -0.396595 0.0 1
P2 1.276294 2.642729 0.0 2
P3 -0.137163 -0.365647 0.0 3
P4 2.607984 1.749603 0.0 4
5
Step 27
P0 -0.738512 1.238783 0.0 0
P1 1.777029 -0.266889 0.0 1
P2 1.351501 2.612630 0.0 2
P3 -0.130518 -0.231435 0.0 3
P4 2.599496 1.639626 0.0 4
5
Step 28
P0 -0.656927 1.286644 0.0 0
P1 1.786953 -0.246108 0.0 1
P2 1.240883 2.459362 0.0 2
P3 0.025398 -0.287629 0.0 3
P4 2.516386 1.577458 0.0 4
5
Step 29
P0 -0.460374 1.358828 0.0 0
P1 1.670440 -0.141020 0.0 1
P2 1.168045 2.434449 0.0 2
P3 -0.040058 -0.302320 0.0 3
P4 2.553050 1.458213 0.0 4
