7
# Frame 1
C 9.379 9.812 10.129
C 8.811 9.561 9.359
C 9.908 9.932 10.993
C 9.683 10.668 9.691
C 9.054 8.947 10.527
C 8.719 10.363 10.672
C 10.105 9.414 9.558
7
# Frame 2
C 9.348 9.844 10.093
C 8.784 9.534 9.275
C 9.871 10.052 10.938
C 9.562 10.742 9.734
C 9.080 8.934 10.360
C 8.614 10.332 10.550
C 10.173 9.462 9.666
7
# Frame 3
C 9.369 9.862 10.113
C 8.869 9.543 9.256
C 9.894 10.122 10.931
C 9.497 10.801 9.816
C 9.092 8.861 10.306
C 8.600 10.308 10.611
C 10.237 9.466 9.747
7
# Frame 4
C 9.436 9.837 10.095
C 8.942 9.507 9.289
C 9.986 10.081 10.889
C 9.489 10.761 9.730
C 9.226 8.873 10.397
C 8.672 10.361 10.561
C 10.262 9.420 9.729
7
# Frame 5
C 9.481 9.786 10.109
C 8.973 9.443 9.342
C 9.981 10.042 10.978
C 9.627 10.688 9.681
C 9.216 8.860 10.275
C 8.760 10.293 10.565
C 10.396 9.420 9.835
7
# Frame 6
C 9.541 9.767 10.089
C 9.067 9.392 9.284
C 10.004 10.007 10.940
C 9.799 10.676 9.793
C 9.156 8.818 10.223
C 8.755 10.303 10.482
C 10.394 9.395 9.827
7
# Frame 7
C 9.546 9.777 10.124
C 9.044 9.356 9.360
C 9.995 9.967 11.033
C 9.783 10.765 9.811
C 9.230 8.805 10.260
C 8.773 10.360 10.439
C 10.462 9.460 9.851
7
# Frame 8
C 9.555 9.864 10.128
C 9.057 9.361 9.422
C 9.913 10.031 11.026
C 9.720 10.831 9.801
C 9.347 8.866 10.275
C 8.810 10.457 10.450
C 10.473 9.635 9.769
7
# Frame 9
C 9.550 9.924 10.146
C 9.111 9.341 9.466
C 9.811 10.256 11.063
C 9.735 10.830 9.779
C 9.392 8.918 10.325
C 8.787 10.524 10.458
C 10.432 9.658 9.810
7
# Frame 10
C 9.536 9.921 10.160
C 9.060 9.345 9.424
C 9.756 10.180 11.116
C 9.704 10.842 9.777
C 9.412 8.906 10.252
C 8.755 10.536 10.386
C 10.509 9.691 9.985
7
# Frame 11
C 9.536 9.894 10.173
C 9.057 9.305 9.506
C 9.806 10.193 11.157
C 9.717 10.791 9.753
C 9.413 8.915 10.318
C 8.722 10.478 10.300
C 10.558 9.699 10.041
7
# Frame 12
C 9.548 9.887 10.141
C 9.080 9.228 9.509
C 9.773 10.153 11.045
C 9.781 10.767 9.700
C 9.330 8.920 10.335
C 8.784 10.573 10.363
C 10.486 9.692 9.847
7
# Frame 13
C 9.496 9.859 10.093
C 9.048 9.155 9.557
C 9.673 10.151 11.052
C 9.735 10.683 9.595
C 9.318 8.849 10.271
C 8.743 10.490 10.291
C 10.489 9.782 9.814
7
# Frame 14
C 9.524 9.846 10.110
C 9.039 9.138 9.584
C 9.797 9.975 11.050
C 9.700 10.651 9.546
C 9.263 8.868 10.317
C 8.807 10.577 10.289
C 10.504 9.858 9.871
7
# Frame 15
C 9.511 9.853 10.158
C 8.839 9.243 9.661
C 9.818 9.927 11.082
C 9.732 10.630 9.572
C 9.278 8.883 10.284
C 8.866 10.600 10.288
C 10.553 9.800 10.017
7
# Frame 16
C 9.562 9.848 10.138
C 8.727 9.320 9.817
C 9.917 9.966 11.058
C 9.723 10.536 9.439
C 9.397 8.821 10.223
C 8.988 10.732 10.238
C 10.543 9.692 10.050
7
# Frame 17
C 9.618 9.829 10.122
C 8.825 9.259 9.945
C 10.025 10.059 11.025
C 9.643 10.451 9.271
C 9.387 8.825 10.220
C 9.221 10.765 10.253
C 10.609 9.643 9.996
7
# Frame 18
C 9.628 9.846 10.073
C 8.822 9.256 9.848
C 10.029 10.125 10.990
C 9.795 10.416 9.258
C 9.323 8.885 10.185
C 9.178 10.774 10.244
C 10.649 9.635 9.944
7
# Frame 19
C 9.644 9.840 10.019
C 8.849 9.309 9.775
C 10.080 9.917 10.918
C 9.766 10.382 9.195
C 9.373 8.896 10.174
C 9.195 10.676 10.253
C 10.637 9.846 9.799
7
# Frame 20
C 9.657 9.808 9.992
C 8.927 9.238 9.611
C 10.025 9.888 10.933
C 9.850 10.492 9.267
C 9.348 8.833 10.207
C 9.183 10.659 10.304
C 10.605 9.721 9.641
